<routes>
        <vType id="typecar" accel="10" decel="20" sigma="0" length="5" minGap="2.5" maxSpeed="20" speedFactoer="normc(1, 0.1, 0.5, 1.5)" guiShape="passenger"/>
        <route id="right" edges="right1 right12 right2" />
        <route id="left" edges="left2 left21 left1" />
    <vehicle id="car_0" type="typecar" route="right" depart="8" />
    <vehicle id="car_1" type="typecar" route="right" depart="9" />
    <vehicle id="car_2" type="typecar" route="right" depart="13" />
    <vehicle id="car_3" type="typecar" route="right" depart="19" />
    <vehicle id="car_4" type="typecar" route="right" depart="20" />
    <vehicle id="car_5" type="typecar" route="right" depart="26" />
    <vehicle id="car_6" type="typecar" route="right" depart="35" />
    <vehicle id="car_7" type="typecar" route="right" depart="56" />
    <vehicle id="car_8" type="typecar" route="right" depart="71" />
    <vehicle id="car_9" type="typecar" route="right" depart="72" />
    <vehicle id="car_10" type="typecar" route="right" depart="91" />
    <vehicle id="car_11" type="typecar" route="right" depart="100" />
    <vehicle id="car_12" type="typecar" route="right" depart="112" />
    <vehicle id="car_13" type="typecar" route="right" depart="123" />
    <vehicle id="car_14" type="typecar" route="right" depart="124" />
    <vehicle id="car_15" type="typecar" route="right" depart="125" />
    <vehicle id="car_16" type="typecar" route="right" depart="131" />
    <vehicle id="car_17" type="typecar" route="right" depart="140" />
    <vehicle id="car_18" type="typecar" route="right" depart="150" />
    <vehicle id="car_19" type="typecar" route="right" depart="151" />
    <vehicle id="car_20" type="typecar" route="right" depart="168" />
    <vehicle id="car_21" type="typecar" route="right" depart="179" />
    <vehicle id="car_22" type="typecar" route="right" depart="181" />
    <vehicle id="car_23" type="typecar" route="right" depart="203" />
    <vehicle id="car_24" type="typecar" route="right" depart="220" />
    <vehicle id="car_25" type="typecar" route="right" depart="237" />
    <vehicle id="car_26" type="typecar" route="right" depart="238" />
    <vehicle id="car_27" type="typecar" route="right" depart="248" />
    <vehicle id="car_28" type="typecar" route="right" depart="257" />
    <vehicle id="car_29" type="typecar" route="right" depart="259" />
    <vehicle id="car_30" type="typecar" route="right" depart="262" />
    <vehicle id="car_31" type="typecar" route="right" depart="280" />
    <vehicle id="car_32" type="typecar" route="right" depart="281" />
    <vehicle id="car_33" type="typecar" route="right" depart="287" />
    <vehicle id="car_34" type="typecar" route="right" depart="302" />
    <vehicle id="car_35" type="typecar" route="right" depart="321" />
    <vehicle id="car_36" type="typecar" route="right" depart="323" />
    <vehicle id="car_37" type="typecar" route="right" depart="325" />
    <vehicle id="car_38" type="typecar" route="right" depart="326" />
    <vehicle id="car_39" type="typecar" route="right" depart="335" />
    <vehicle id="car_40" type="typecar" route="right" depart="349" />
    <vehicle id="car_41" type="typecar" route="right" depart="363" />
    <vehicle id="car_42" type="typecar" route="right" depart="373" />
    <vehicle id="car_43" type="typecar" route="right" depart="377" />
    <vehicle id="car_44" type="typecar" route="right" depart="387" />
    <vehicle id="car_45" type="typecar" route="right" depart="404" />
    <vehicle id="car_46" type="typecar" route="right" depart="405" />
    <vehicle id="car_47" type="typecar" route="right" depart="427" />
    <vehicle id="car_48" type="typecar" route="right" depart="434" />
    <vehicle id="car_49" type="typecar" route="right" depart="464" />
    <vehicle id="car_50" type="typecar" route="right" depart="467" />
    <vehicle id="car_51" type="typecar" route="right" depart="503" />
    <vehicle id="car_52" type="typecar" route="right" depart="514" />
    <vehicle id="car_53" type="typecar" route="right" depart="531" />
    <vehicle id="car_54" type="typecar" route="right" depart="563" />
    <vehicle id="car_55" type="typecar" route="right" depart="569" />
    <vehicle id="car_56" type="typecar" route="right" depart="580" />
    <vehicle id="car_57" type="typecar" route="right" depart="602" />
    <vehicle id="car_58" type="typecar" route="right" depart="631" />
    <vehicle id="car_59" type="typecar" route="right" depart="633" />
    <vehicle id="car_60" type="typecar" route="right" depart="637" />
    <vehicle id="car_61" type="typecar" route="right" depart="646" />
    <vehicle id="car_62" type="typecar" route="right" depart="661" />
    <vehicle id="car_63" type="typecar" route="right" depart="673" />
    <vehicle id="car_64" type="typecar" route="right" depart="676" />
    <vehicle id="car_65" type="typecar" route="right" depart="682" />
    <vehicle id="car_66" type="typecar" route="right" depart="683" />
    <vehicle id="car_67" type="typecar" route="right" depart="685" />
    <vehicle id="car_68" type="typecar" route="right" depart="688" />
    <vehicle id="car_69" type="typecar" route="right" depart="689" />
    <vehicle id="car_70" type="typecar" route="right" depart="700" />
    <vehicle id="car_71" type="typecar" route="right" depart="707" />
    <vehicle id="car_72" type="typecar" route="right" depart="724" />
    <vehicle id="car_73" type="typecar" route="right" depart="725" />
    <vehicle id="car_74" type="typecar" route="right" depart="730" />
    <vehicle id="car_75" type="typecar" route="right" depart="737" />
    <vehicle id="car_76" type="typecar" route="right" depart="739" />
    <vehicle id="car_77" type="typecar" route="right" depart="741" />
    <vehicle id="car_78" type="typecar" route="right" depart="742" />
    <vehicle id="car_79" type="typecar" route="right" depart="773" />
    <vehicle id="car_80" type="typecar" route="right" depart="776" />
    <vehicle id="car_81" type="typecar" route="right" depart="790" />
    <vehicle id="car_82" type="typecar" route="right" depart="822" />
    <vehicle id="car_83" type="typecar" route="right" depart="823" />
    <vehicle id="car_84" type="typecar" route="right" depart="830" />
    <vehicle id="car_85" type="typecar" route="right" depart="831" />
    <vehicle id="car_86" type="typecar" route="right" depart="836" />
    <vehicle id="car_87" type="typecar" route="right" depart="863" />
    <vehicle id="car_88" type="typecar" route="right" depart="869" />
    <vehicle id="car_89" type="typecar" route="right" depart="914" />
    <vehicle id="car_90" type="typecar" route="right" depart="932" />
    <vehicle id="car_91" type="typecar" route="right" depart="936" />
    <vehicle id="car_92" type="typecar" route="right" depart="943" />
    <vehicle id="car_93" type="typecar" route="right" depart="963" />
    <vehicle id="car_94" type="typecar" route="right" depart="987" />
    <vehicle id="car_95" type="typecar" route="right" depart="1022" />
    <vehicle id="car_96" type="typecar" route="right" depart="1034" />
    <vehicle id="car_97" type="typecar" route="right" depart="1044" />
    <vehicle id="car_98" type="typecar" route="right" depart="1045" />
    <vehicle id="car_99" type="typecar" route="right" depart="1048" />
    <vehicle id="car_100" type="typecar" route="right" depart="1055" />
    <vehicle id="car_101" type="typecar" route="right" depart="1061" />
    <vehicle id="car_102" type="typecar" route="right" depart="1062" />
    <vehicle id="car_103" type="typecar" route="right" depart="1067" />
    <vehicle id="car_104" type="typecar" route="right" depart="1068" />
    <vehicle id="car_105" type="typecar" route="right" depart="1095" />
    <vehicle id="car_106" type="typecar" route="right" depart="1114" />
    <vehicle id="car_107" type="typecar" route="right" depart="1136" />
    <vehicle id="car_108" type="typecar" route="right" depart="1150" />
    <vehicle id="car_109" type="typecar" route="right" depart="1152" />
    <vehicle id="car_110" type="typecar" route="right" depart="1154" />
    <vehicle id="car_111" type="typecar" route="right" depart="1155" />
    <vehicle id="car_112" type="typecar" route="right" depart="1180" />
    <vehicle id="car_113" type="typecar" route="right" depart="1189" />
    <vehicle id="car_114" type="typecar" route="right" depart="1198" />
    <vehicle id="car_115" type="typecar" route="right" depart="1204" />
    <vehicle id="car_116" type="typecar" route="right" depart="1223" />
    <vehicle id="car_117" type="typecar" route="right" depart="1224" />
    <vehicle id="car_118" type="typecar" route="right" depart="1234" />
    <vehicle id="car_119" type="typecar" route="right" depart="1241" />
    <vehicle id="car_120" type="typecar" route="right" depart="1272" />
    <vehicle id="car_121" type="typecar" route="right" depart="1317" />
    <vehicle id="car_122" type="typecar" route="right" depart="1319" />
    <vehicle id="car_123" type="typecar" route="right" depart="1326" />
    <vehicle id="car_124" type="typecar" route="right" depart="1338" />
    <vehicle id="car_125" type="typecar" route="right" depart="1348" />
    <vehicle id="car_126" type="typecar" route="right" depart="1369" />
    <vehicle id="car_127" type="typecar" route="right" depart="1386" />
    <vehicle id="car_128" type="typecar" route="right" depart="1391" />
    <vehicle id="car_129" type="typecar" route="right" depart="1397" />
    <vehicle id="car_130" type="typecar" route="right" depart="1399" />
    <vehicle id="car_131" type="typecar" route="right" depart="1412" />
    <vehicle id="car_132" type="typecar" route="right" depart="1420" />
    <vehicle id="car_133" type="typecar" route="right" depart="1452" />
    <vehicle id="car_134" type="typecar" route="right" depart="1465" />
    <vehicle id="car_135" type="typecar" route="right" depart="1478" />
    <vehicle id="car_136" type="typecar" route="right" depart="1479" />
    <vehicle id="car_137" type="typecar" route="right" depart="1487" />
    <vehicle id="car_138" type="typecar" route="right" depart="1491" />
    <vehicle id="car_139" type="typecar" route="right" depart="1503" />
    <vehicle id="car_140" type="typecar" route="right" depart="1511" />
    <vehicle id="car_141" type="typecar" route="right" depart="1515" />
    <vehicle id="car_142" type="typecar" route="right" depart="1528" />
    <vehicle id="car_143" type="typecar" route="right" depart="1535" />
    <vehicle id="car_144" type="typecar" route="right" depart="1537" />
    <vehicle id="car_145" type="typecar" route="right" depart="1540" />
    <vehicle id="car_146" type="typecar" route="right" depart="1542" />
    <vehicle id="car_147" type="typecar" route="right" depart="1544" />
    <vehicle id="car_148" type="typecar" route="right" depart="1559" />
    <vehicle id="car_149" type="typecar" route="right" depart="1560" />
    <vehicle id="car_150" type="typecar" route="right" depart="1568" />
    <vehicle id="car_151" type="typecar" route="right" depart="1592" />
    <vehicle id="car_152" type="typecar" route="right" depart="1606" />
    <vehicle id="car_153" type="typecar" route="right" depart="1610" />
    <vehicle id="car_154" type="typecar" route="right" depart="1616" />
    <vehicle id="car_155" type="typecar" route="right" depart="1637" />
    <vehicle id="car_156" type="typecar" route="right" depart="1650" />
    <vehicle id="car_157" type="typecar" route="right" depart="1655" />
    <vehicle id="car_158" type="typecar" route="right" depart="1666" />
    <vehicle id="car_159" type="typecar" route="right" depart="1668" />
    <vehicle id="car_160" type="typecar" route="right" depart="1684" />
    <vehicle id="car_161" type="typecar" route="right" depart="1685" />
    <vehicle id="car_162" type="typecar" route="right" depart="1686" />
    <vehicle id="car_163" type="typecar" route="right" depart="1689" />
    <vehicle id="car_164" type="typecar" route="right" depart="1690" />
    <vehicle id="car_165" type="typecar" route="right" depart="1693" />
    <vehicle id="car_166" type="typecar" route="right" depart="1694" />
    <vehicle id="car_167" type="typecar" route="right" depart="1708" />
    <vehicle id="car_168" type="typecar" route="right" depart="1715" />
    <vehicle id="car_169" type="typecar" route="right" depart="1721" />
    <vehicle id="car_170" type="typecar" route="right" depart="1739" />
    <vehicle id="car_171" type="typecar" route="right" depart="1756" />
    <vehicle id="car_172" type="typecar" route="right" depart="1768" />
    <vehicle id="car_173" type="typecar" route="right" depart="1778" />
    <vehicle id="car_174" type="typecar" route="right" depart="1791" />
    <vehicle id="car_175" type="typecar" route="right" depart="1808" />
    <vehicle id="car_176" type="typecar" route="right" depart="1818" />
    <vehicle id="car_177" type="typecar" route="right" depart="1821" />
    <vehicle id="car_178" type="typecar" route="right" depart="1822" />
    <vehicle id="car_179" type="typecar" route="right" depart="1841" />
    <vehicle id="car_180" type="typecar" route="right" depart="1848" />
    <vehicle id="car_181" type="typecar" route="right" depart="1853" />
    <vehicle id="car_182" type="typecar" route="right" depart="1861" />
    <vehicle id="car_183" type="typecar" route="right" depart="1864" />
    <vehicle id="car_184" type="typecar" route="right" depart="1865" />
    <vehicle id="car_185" type="typecar" route="right" depart="1869" />
    <vehicle id="car_186" type="typecar" route="right" depart="1879" />
    <vehicle id="car_187" type="typecar" route="right" depart="1880" />
    <vehicle id="car_188" type="typecar" route="right" depart="1883" />
    <vehicle id="car_189" type="typecar" route="right" depart="1894" />
    <vehicle id="car_190" type="typecar" route="right" depart="1918" />
    <vehicle id="car_191" type="typecar" route="right" depart="1926" />
    <vehicle id="car_192" type="typecar" route="right" depart="1932" />
    <vehicle id="car_193" type="typecar" route="right" depart="1939" />
    <vehicle id="car_194" type="typecar" route="right" depart="1950" />
    <vehicle id="car_195" type="typecar" route="right" depart="1953" />
    <vehicle id="car_196" type="typecar" route="right" depart="1977" />
    <vehicle id="car_197" type="typecar" route="right" depart="1988" />
    <vehicle id="car_198" type="typecar" route="right" depart="1990" />
    <vehicle id="car_199" type="typecar" route="right" depart="1996" />
    <vehicle id="car_200" type="typecar" route="right" depart="2009" />
    <vehicle id="car_201" type="typecar" route="right" depart="2016" />
    <vehicle id="car_202" type="typecar" route="right" depart="2038" />
    <vehicle id="car_203" type="typecar" route="right" depart="2043" />
    <vehicle id="car_204" type="typecar" route="right" depart="2099" />
    <vehicle id="car_205" type="typecar" route="right" depart="2106" />
    <vehicle id="car_206" type="typecar" route="right" depart="2140" />
    <vehicle id="car_207" type="typecar" route="right" depart="2148" />
    <vehicle id="car_208" type="typecar" route="right" depart="2155" />
    <vehicle id="car_209" type="typecar" route="right" depart="2157" />
    <vehicle id="car_210" type="typecar" route="right" depart="2179" />
    <vehicle id="car_211" type="typecar" route="right" depart="2181" />
    <vehicle id="car_212" type="typecar" route="right" depart="2186" />
    <vehicle id="car_213" type="typecar" route="right" depart="2189" />
    <vehicle id="car_214" type="typecar" route="right" depart="2199" />
    <vehicle id="car_215" type="typecar" route="right" depart="2210" />
    <vehicle id="car_216" type="typecar" route="right" depart="2214" />
    <vehicle id="car_217" type="typecar" route="right" depart="2215" />
    <vehicle id="car_218" type="typecar" route="right" depart="2221" />
    <vehicle id="car_219" type="typecar" route="right" depart="2233" />
    <vehicle id="car_220" type="typecar" route="right" depart="2237" />
    <vehicle id="car_221" type="typecar" route="right" depart="2242" />
    <vehicle id="car_222" type="typecar" route="right" depart="2251" />
    <vehicle id="car_223" type="typecar" route="right" depart="2278" />
    <vehicle id="car_224" type="typecar" route="right" depart="2301" />
    <vehicle id="car_225" type="typecar" route="right" depart="2303" />
    <vehicle id="car_226" type="typecar" route="right" depart="2320" />
    <vehicle id="car_227" type="typecar" route="right" depart="2322" />
    <vehicle id="car_228" type="typecar" route="right" depart="2329" />
    <vehicle id="car_229" type="typecar" route="right" depart="2340" />
    <vehicle id="car_230" type="typecar" route="right" depart="2348" />
    <vehicle id="car_231" type="typecar" route="right" depart="2372" />
    <vehicle id="car_232" type="typecar" route="right" depart="2381" />
    <vehicle id="car_233" type="typecar" route="right" depart="2392" />
    <vehicle id="car_234" type="typecar" route="right" depart="2423" />
    <vehicle id="car_235" type="typecar" route="right" depart="2433" />
    <vehicle id="car_236" type="typecar" route="right" depart="2441" />
    <vehicle id="car_237" type="typecar" route="right" depart="2444" />
    <vehicle id="car_238" type="typecar" route="right" depart="2447" />
    <vehicle id="car_239" type="typecar" route="right" depart="2450" />
    <vehicle id="car_240" type="typecar" route="right" depart="2451" />
    <vehicle id="car_241" type="typecar" route="right" depart="2452" />
    <vehicle id="car_242" type="typecar" route="right" depart="2472" />
    <vehicle id="car_243" type="typecar" route="right" depart="2489" />
    <vehicle id="car_244" type="typecar" route="right" depart="2499" />
    <vehicle id="car_245" type="typecar" route="right" depart="2500" />
    <vehicle id="car_246" type="typecar" route="right" depart="2505" />
    <vehicle id="car_247" type="typecar" route="right" depart="2517" />
    <vehicle id="car_248" type="typecar" route="right" depart="2518" />
    <vehicle id="car_249" type="typecar" route="right" depart="2521" />
    <vehicle id="car_250" type="typecar" route="right" depart="2522" />
    <vehicle id="car_251" type="typecar" route="right" depart="2533" />
    <vehicle id="car_252" type="typecar" route="right" depart="2535" />
    <vehicle id="car_253" type="typecar" route="right" depart="2540" />
    <vehicle id="car_254" type="typecar" route="right" depart="2542" />
    <vehicle id="car_255" type="typecar" route="right" depart="2545" />
    <vehicle id="car_256" type="typecar" route="right" depart="2548" />
    <vehicle id="car_257" type="typecar" route="right" depart="2561" />
    <vehicle id="car_258" type="typecar" route="right" depart="2562" />
    <vehicle id="car_259" type="typecar" route="right" depart="2571" />
    <vehicle id="car_260" type="typecar" route="right" depart="2577" />
    <vehicle id="car_261" type="typecar" route="right" depart="2582" />
    <vehicle id="car_262" type="typecar" route="right" depart="2588" />
    <vehicle id="car_263" type="typecar" route="right" depart="2590" />
    <vehicle id="car_264" type="typecar" route="right" depart="2593" />
    <vehicle id="car_265" type="typecar" route="right" depart="2596" />
    <vehicle id="car_266" type="typecar" route="right" depart="2607" />
    <vehicle id="car_267" type="typecar" route="right" depart="2626" />
    <vehicle id="car_268" type="typecar" route="right" depart="2629" />
    <vehicle id="car_269" type="typecar" route="right" depart="2653" />
    <vehicle id="car_270" type="typecar" route="right" depart="2654" />
    <vehicle id="car_271" type="typecar" route="right" depart="2671" />
    <vehicle id="car_272" type="typecar" route="right" depart="2672" />
    <vehicle id="car_273" type="typecar" route="right" depart="2673" />
    <vehicle id="car_274" type="typecar" route="right" depart="2678" />
    <vehicle id="car_275" type="typecar" route="right" depart="2685" />
    <vehicle id="car_276" type="typecar" route="right" depart="2692" />
    <vehicle id="car_277" type="typecar" route="right" depart="2710" />
    <vehicle id="car_278" type="typecar" route="right" depart="2733" />
    <vehicle id="car_279" type="typecar" route="right" depart="2741" />
    <vehicle id="car_280" type="typecar" route="right" depart="2747" />
    <vehicle id="car_281" type="typecar" route="right" depart="2751" />
    <vehicle id="car_282" type="typecar" route="right" depart="2752" />
    <vehicle id="car_283" type="typecar" route="right" depart="2762" />
    <vehicle id="car_284" type="typecar" route="right" depart="2772" />
    <vehicle id="car_285" type="typecar" route="right" depart="2775" />
    <vehicle id="car_286" type="typecar" route="right" depart="2797" />
    <vehicle id="car_287" type="typecar" route="right" depart="2798" />
    <vehicle id="car_288" type="typecar" route="right" depart="2808" />
    <vehicle id="car_289" type="typecar" route="right" depart="2815" />
    <vehicle id="car_290" type="typecar" route="right" depart="2816" />
    <vehicle id="car_291" type="typecar" route="right" depart="2832" />
    <vehicle id="car_292" type="typecar" route="right" depart="2848" />
    <vehicle id="car_293" type="typecar" route="right" depart="2857" />
    <vehicle id="car_294" type="typecar" route="right" depart="2864" />
    <vehicle id="car_295" type="typecar" route="right" depart="2902" />
    <vehicle id="car_296" type="typecar" route="right" depart="2910" />
    <vehicle id="car_297" type="typecar" route="right" depart="2911" />
    <vehicle id="car_298" type="typecar" route="right" depart="2913" />
    <vehicle id="car_299" type="typecar" route="right" depart="2914" />
    <vehicle id="car_300" type="typecar" route="right" depart="2916" />
    <vehicle id="car_301" type="typecar" route="right" depart="2939" />
    <vehicle id="car_302" type="typecar" route="right" depart="2940" />
    <vehicle id="car_303" type="typecar" route="right" depart="2942" />
    <vehicle id="car_304" type="typecar" route="right" depart="2943" />
    <vehicle id="car_305" type="typecar" route="right" depart="2945" />
    <vehicle id="car_306" type="typecar" route="right" depart="2962" />
    <vehicle id="car_307" type="typecar" route="right" depart="2981" />
    <vehicle id="car_308" type="typecar" route="right" depart="2994" />
    <vehicle id="car_309" type="typecar" route="right" depart="3015" />
    <vehicle id="car_310" type="typecar" route="right" depart="3016" />
    <vehicle id="car_311" type="typecar" route="right" depart="3022" />
    <vehicle id="car_312" type="typecar" route="right" depart="3040" />
    <vehicle id="car_313" type="typecar" route="right" depart="3047" />
    <vehicle id="car_314" type="typecar" route="right" depart="3057" />
    <vehicle id="car_315" type="typecar" route="right" depart="3072" />
    <vehicle id="car_316" type="typecar" route="right" depart="3098" />
    <vehicle id="car_317" type="typecar" route="right" depart="3109" />
    <vehicle id="car_318" type="typecar" route="right" depart="3115" />
    <vehicle id="car_319" type="typecar" route="right" depart="3116" />
    <vehicle id="car_320" type="typecar" route="right" depart="3127" />
    <vehicle id="car_321" type="typecar" route="right" depart="3141" />
    <vehicle id="car_322" type="typecar" route="right" depart="3150" />
    <vehicle id="car_323" type="typecar" route="right" depart="3157" />
    <vehicle id="car_324" type="typecar" route="right" depart="3163" />
    <vehicle id="car_325" type="typecar" route="right" depart="3167" />
    <vehicle id="car_326" type="typecar" route="right" depart="3169" />
    <vehicle id="car_327" type="typecar" route="right" depart="3171" />
    <vehicle id="car_328" type="typecar" route="right" depart="3173" />
    <vehicle id="car_329" type="typecar" route="right" depart="3176" />
    <vehicle id="car_330" type="typecar" route="right" depart="3184" />
    <vehicle id="car_331" type="typecar" route="right" depart="3185" />
    <vehicle id="car_332" type="typecar" route="right" depart="3190" />
    <vehicle id="car_333" type="typecar" route="right" depart="3195" />
    <vehicle id="car_334" type="typecar" route="right" depart="3215" />
    <vehicle id="car_335" type="typecar" route="right" depart="3242" />
    <vehicle id="car_336" type="typecar" route="right" depart="3247" />
    <vehicle id="car_337" type="typecar" route="right" depart="3249" />
    <vehicle id="car_338" type="typecar" route="right" depart="3263" />
    <vehicle id="car_339" type="typecar" route="right" depart="3271" />
    <vehicle id="car_340" type="typecar" route="right" depart="3279" />
    <vehicle id="car_341" type="typecar" route="right" depart="3294" />
    <vehicle id="car_342" type="typecar" route="right" depart="3297" />
    <vehicle id="car_343" type="typecar" route="right" depart="3305" />
    <vehicle id="car_344" type="typecar" route="right" depart="3313" />
    <vehicle id="car_345" type="typecar" route="right" depart="3327" />
    <vehicle id="car_346" type="typecar" route="right" depart="3346" />
    <vehicle id="car_347" type="typecar" route="right" depart="3362" />
    <vehicle id="car_348" type="typecar" route="right" depart="3368" />
    <vehicle id="car_349" type="typecar" route="right" depart="3374" />
    <vehicle id="car_350" type="typecar" route="right" depart="3383" />
    <vehicle id="car_351" type="typecar" route="right" depart="3393" />
    <vehicle id="car_352" type="typecar" route="right" depart="3399" />
    <vehicle id="car_353" type="typecar" route="right" depart="3409" />
    <vehicle id="car_354" type="typecar" route="right" depart="3413" />
    <vehicle id="car_355" type="typecar" route="right" depart="3435" />
    <vehicle id="car_356" type="typecar" route="right" depart="3452" />
    <vehicle id="car_357" type="typecar" route="right" depart="3454" />
    <vehicle id="car_358" type="typecar" route="right" depart="3459" />
    <vehicle id="car_359" type="typecar" route="right" depart="3470" />
    <vehicle id="car_360" type="typecar" route="right" depart="3471" />
    <vehicle id="car_361" type="typecar" route="right" depart="3475" />
    <vehicle id="car_362" type="typecar" route="right" depart="3483" />
    <vehicle id="car_363" type="typecar" route="right" depart="3496" />
    <vehicle id="car_364" type="typecar" route="right" depart="3520" />
    <vehicle id="car_365" type="typecar" route="right" depart="3523" />
    <vehicle id="car_366" type="typecar" route="right" depart="3526" />
    <vehicle id="car_367" type="typecar" route="right" depart="3538" />
    <vehicle id="car_368" type="typecar" route="right" depart="3543" />
    <vehicle id="car_369" type="typecar" route="right" depart="3545" />
    <vehicle id="car_370" type="typecar" route="right" depart="3557" />
    <vehicle id="car_371" type="typecar" route="right" depart="3580" />
    <vehicle id="car_372" type="typecar" route="right" depart="3588" />
    <vehicle id="car_373" type="typecar" route="right" depart="3604" />
    <vehicle id="car_374" type="typecar" route="right" depart="3614" />
    <vehicle id="car_375" type="typecar" route="right" depart="3625" />
    <vehicle id="car_376" type="typecar" route="right" depart="3644" />
    <vehicle id="car_377" type="typecar" route="right" depart="3645" />
    <vehicle id="car_378" type="typecar" route="right" depart="3650" />
    <vehicle id="car_379" type="typecar" route="right" depart="3654" />
    <vehicle id="car_380" type="typecar" route="right" depart="3655" />
    <vehicle id="car_381" type="typecar" route="right" depart="3657" />
    <vehicle id="car_382" type="typecar" route="right" depart="3685" />
    <vehicle id="car_383" type="typecar" route="right" depart="3686" />
    <vehicle id="car_384" type="typecar" route="right" depart="3701" />
    <vehicle id="car_385" type="typecar" route="right" depart="3720" />
    <vehicle id="car_386" type="typecar" route="right" depart="3747" />
    <vehicle id="car_387" type="typecar" route="right" depart="3762" />
    <vehicle id="car_388" type="typecar" route="right" depart="3765" />
    <vehicle id="car_389" type="typecar" route="right" depart="3782" />
    <vehicle id="car_390" type="typecar" route="right" depart="3787" />
    <vehicle id="car_391" type="typecar" route="right" depart="3803" />
    <vehicle id="car_392" type="typecar" route="right" depart="3809" />
    <vehicle id="car_393" type="typecar" route="right" depart="3811" />
    <vehicle id="car_394" type="typecar" route="right" depart="3817" />
    <vehicle id="car_395" type="typecar" route="right" depart="3823" />
    <vehicle id="car_396" type="typecar" route="right" depart="3832" />
    <vehicle id="car_397" type="typecar" route="right" depart="3840" />
    <vehicle id="car_398" type="typecar" route="right" depart="3847" />
    <vehicle id="car_399" type="typecar" route="right" depart="3857" />
    <vehicle id="car_400" type="typecar" route="right" depart="3861" />
    <vehicle id="car_401" type="typecar" route="right" depart="3872" />
    <vehicle id="car_402" type="typecar" route="right" depart="3913" />
    <vehicle id="car_403" type="typecar" route="right" depart="3917" />
    <vehicle id="car_404" type="typecar" route="right" depart="3918" />
    <vehicle id="car_405" type="typecar" route="right" depart="3919" />
    <vehicle id="car_406" type="typecar" route="right" depart="3920" />
    <vehicle id="car_407" type="typecar" route="right" depart="3921" />
    <vehicle id="car_408" type="typecar" route="right" depart="3924" />
    <vehicle id="car_409" type="typecar" route="right" depart="3938" />
    <vehicle id="car_410" type="typecar" route="right" depart="3944" />
    <vehicle id="car_411" type="typecar" route="right" depart="3955" />
    <vehicle id="car_412" type="typecar" route="right" depart="3959" />
    <vehicle id="car_413" type="typecar" route="right" depart="3982" />
    <vehicle id="car_414" type="typecar" route="right" depart="3997" />